const char *g_gpgpusim_version_string = "GPGPU-Sim Simulator Version Fault ";
const char *g_gpgpusim_build_string   =  "$Change$"; 
